/*--------------------------------*- C++ -*----------------------------------*\
| =========                 |                                                 |
| \\      /  F ield         | OpenFOAM: The Open Source CFD Toolbox           |
|  \\    /   O peration     | Version:  2.3.1                                 |
|   \\  /    A nd           | Web:      www.OpenFOAM.org                      |
|    \\/     M anipulation  |                                                 |
\*---------------------------------------------------------------------------*/
FoamFile
{
    version     2.0;
    format      ascii;
    class       dictionary;
    location    "constant";
    object      transportProperties;
}
// * * * * * * * * * * * * * * * * * * * * * * * * * * * * * * * * * * * * * //

transportModel mixtureAverage;

mixtureAverageProperties
{
    thermophoresis off;
    CutOff 5;
    gradX on;
}

LewisNumberProperties
{
    thermophoresis off;
    CutOff 5;
    gradX on;
}

CHEMKINFile     "$FOAM_CASE/chemkin/chem.inp";

CHEMKINThermoFile "$FOAM_CASE/chemkin/therm.dat";

CHEMKINTransportFile "$FOAM_CASE/chemkin/transportProperties";

CHEMKINTransportFileNew "$FOAM_CASE/chemkin/tran.dat";
Tmin 200;

Tmax 5000;


// ************************************************************************* //
