/*--------------------------------*- C++ -*----------------------------------*\
| =========                 |                                                 |
| \\      /  F ield         | OpenFOAM: The Open Source CFD Toolbox           |
|  \\    /   O peration     | Version:  6                                 |
|   \\  /    A nd           | Web:      www.OpenFOAM.org                      |
|    \\/     M anipulation  |                                                 |
\*---------------------------------------------------------------------------*/
FoamFile
{
    version     2.0;
    format      ascii;
    class       dictionary;
    location    "constant";
    object      transportProperties;
}
// * * * * * * * * * * * * * * * * * * * * * * * * * * * * * * * * * * * * * //

transportModel mixtureAverage;

mixtureAverageProperties
{
    thermophoresis off;
    CutOff 5;
    gradX on;
}


CHEMKINFile     "$FOAM_CASE/chemkin/chem.inp";

CHEMKINThermoFile "$FOAM_CASE/chemkin/therm.dat";

CHEMKINTransportFile "$FOAM_CASE/chemkin/transportProperties";

CHEMKINTransportFileNew "$FOAM_CASE/chemkin/tran.dat";
Tmin 100;

Tmax 8000;


// ************************************************************************* //
